
**** 04/29/21 10:36:50 ******* PSpice 17.4.0 (Nov 2018) ******* ID# 0 ********

 ** Profile: "SCHEMATIC1-sim_dc"  [ f:\facultate\an2\semestrul 2\tehnici cad\proiect\proiect-PSpiceFiles\SCHEMATIC1\sim_dc.sim ] 


 ****     CIRCUIT DESCRIPTION


******************************************************************************




** Creating circuit file "sim_dc.cir" 
** WARNING: THIS AUTOMATICALLY GENERATED FILE MAY BE OVERWRITTEN BY SUBSEQUENT SIMULATIONS

*Libraries: 
* Profile Libraries :
* Local Libraries :
* From [PSPICE NETLIST] section of C:\Users\Mihai\AppData\Roaming\SPB_Data\cdssetup\OrCAD_PSpice\17.4.0\PSpice.ini file:
.lib "nom.lib" 

*Analysis directives: 
.DC LIN PARAM S 0 1 0.1 
.OPTIONS ADVCONV
.PROBE64 V(alias(*)) I(alias(*)) W(alias(*)) D(alias(*)) NOISE(alias(*)) 
.INC "..\SCHEMATIC1.net" 



**** INCLUDING SCHEMATIC1.net ****
* source PROIECT
V_V1         N00884 0 12V
X_R1         N00962 N00884 N00884 POT PARAMS: SET={S} VALUE=50k
R_R2         0 N00962  15k TC=0,0 
X_U1A         N01967 N01971 +VCC -VCC N02027 UA772
V_V2         N01960 0 20V
R_R3         N00962 N01967  22k TC=0,0 
R_R4         N01960 N01971  22k TC=0,0 
R_R5         0 N01971  10k TC=0,0 
R_R6         N01967 N02027  10k TC=0,0 
X_U1B         N02027 N02279 +VCC -VCC N02359 UA772
R_R7         N02279 0  10k TC=0,0 
R_R8         N02359 N02279  6.5k TC=0,0 
V_V3         +VCC 0 15V
V_V4         -VCC 0 -15V
R_R9         N02359 0  1G TC=0,0 
.PARAM  s=0

ERROR(ORPSIM-15089): Can not re-define S. S is either a system defined variable or has already been defined

**** RESUMING sim_dc.cir ****
.END
