
**** 05/26/21 17:04:11 ******* PSpice 17.4.0 (Nov 2018) ******* ID# 0 ********

 ** Profile: "SCHEMATIC1-Simulare_timp"  [ f:\facultate\an2\semestrul 2\tehnici cad\proiect\proiect-pspicefiles\schematic1\simulare_t


 ****     CIRCUIT DESCRIPTION


******************************************************************************




** Creating circuit file "Simulare_timp.cir" 
** WARNING: THIS AUTOMATICALLY GENERATED FILE MAY BE OVERWRITTEN BY SUBSEQUENT SIMULATIONS

*Libraries: 
* Profile Libraries :
* Local Libraries :
.LIB "../../../led_violet.lib" 
.LIB "../../../led_verde.lib" 
.LIB "../../../led_rosu.lib" 
.LIB "../../../led_galben.lib" 
.LIB "../../../led_albastru.lib" 
.LIB "../../../led_alb.lib" 
* From [PSPICE NETLIST] section of C:\Users\Mihai\AppData\Roaming\SPB_Data\cdssetup\OrCAD_PSpice\17.4.0\PSpice.ini file:
.lib "nom.lib" 

*Analysis directives: 
.TRAN  0 5ms 0 0.1m 
.STEP PARAM R LIST 1 1.5k 3.5k 6.5k 11.5k 21.5k 50k 
.OPTIONS ADVCONV
.PROBE64 V(alias(*)) I(alias(*)) W(alias(*)) D(alias(*)) NOISE(alias(*)) 
.INC "..\SCHEMATIC1.net" 



**** INCLUDING SCHEMATIC1.net ****
* source PROIECT
V_V1         N00884 0 12V
R_R2         0 N33107  15k TC=0,0 
V_V2         N01960 0 20V
R_R3         N33107 N01967  22k TC=0,0 
R_R4         N01960 N01971  22k TC=0,0 
R_R5         0 N01971  10k TC=0,0 
R_R6         N01967 N02054  10k TC=0,0 
R_R7         N02279 0  10k TC=0,0 
R_R8         N02363 N02279  6.5k TC=0,0 
V_V3         +VCC 0 12V
V_V4         -VCC 0 -12V
R_R9         N33107 N00884  {R} TC=0,0 
V_V6         N44111 0 5.99V
V_V7         N18597 0 6.99V
V_V8         N18770 0 7.99V
V_V9         N18946 0 8.99V
V_V10         N19125 0 9.99V
V_V11         N20229 0 10.99V
R_R10         N21390 N21545  430 TC=0,0 
R_R11         N21394 N21549  430 TC=0,0 
R_R12         N21398 N21553  485 TC=0,0 
R_R13         N21402 N21557  490 TC=0,0 
R_R14         N21406 N21561  475 TC=0,0 
R_R15         N21414 N21565  445 TC=0,0 
D_D1         N21545 0 ALB 
D_D2         N21549 0 ALBASTRU 
D_D3         N21553 0 GALBEN 
D_D4         N21557 0 ROSU 
D_D5         N21561 0 VERDE 
D_D6         N21565 0 VIOLET 
X_U11         N02363 N44111 +VCC 0 N21390 LM741
X_U12         N02363 N18597 +VCC 0 N21394 LM741
X_U13         N02363 N18770 +VCC 0 N21398 LM741
X_U14         N02363 N18946 +VCC 0 N21402 LM741
X_U15         N02363 N19125 +VCC 0 N21406 LM741
X_U16         N02363 N20229 +VCC 0 N21414 LM741
X_U17A         N02054 N02279 +VCC -VCC N02363 UA772
X_U17B         N01971 N01967 +VCC -VCC N02054 UA772
.PARAM  r=50k

**** RESUMING Simulare_timp.cir ****
.END

**** 05/26/21 17:04:11 ******* PSpice 17.4.0 (Nov 2018) ******* ID# 0 ********

 ** Profile: "SCHEMATIC1-Simulare_timp"  [ f:\facultate\an2\semestrul 2\tehnici cad\proiect\proiect-pspicefiles\schematic1\simulare_t


 ****     Diode MODEL PARAMETERS


******************************************************************************




               VIOLET          VERDE           ROSU            GALBEN          
          IS   27.627000E-12  543.420000E-12  546.370000E-15  229.480000E-18 
           N    4.995           4.8013          2.6607          2.0169       
          RS   16.165           7.6318         16.514          21.7          


               ALBASTRU        ALB             X_U17A.dx       X_U17A.dy       
          IS  168.200000E-15  394.200000E-18  800.000000E-18  800.000000E-18 
           N    4.4901          3.6253                                       
          RS   11.666          12.352                           1.000000E-03 
         CJO                                                   10.000000E-12 


               X_U17B.dx       X_U17B.dy       
          IS  800.000000E-18  800.000000E-18 
          RS                    1.000000E-03 
         CJO                   10.000000E-12 


               X_U11.x_lm741.dx 
          IS  800.000000E-18 
          RS    1            


               X_U11.x_lm741.dy 
          IS  800.000000E-18 
          RS    1.000000E-03 
         CJO   10.000000E-12 


               X_U12.x_lm741.dx 
          IS  800.000000E-18 
          RS    1            


               X_U12.x_lm741.dy 
          IS  800.000000E-18 
          RS    1.000000E-03 
         CJO   10.000000E-12 


               X_U13.x_lm741.dx 
          IS  800.000000E-18 
          RS    1            


               X_U13.x_lm741.dy 
          IS  800.000000E-18 
          RS    1.000000E-03 
         CJO   10.000000E-12 


               X_U14.x_lm741.dx 
          IS  800.000000E-18 
          RS    1            


               X_U14.x_lm741.dy 
          IS  800.000000E-18 
          RS    1.000000E-03 
         CJO   10.000000E-12 


               X_U15.x_lm741.dx 
          IS  800.000000E-18 
          RS    1            


               X_U15.x_lm741.dy 
          IS  800.000000E-18 
          RS    1.000000E-03 
         CJO   10.000000E-12 


               X_U16.x_lm741.dx 
          IS  800.000000E-18 
          RS    1            


               X_U16.x_lm741.dy 
          IS  800.000000E-18 
          RS    1.000000E-03 
         CJO   10.000000E-12 


**** 05/26/21 17:04:11 ******* PSpice 17.4.0 (Nov 2018) ******* ID# 0 ********

 ** Profile: "SCHEMATIC1-Simulare_timp"  [ f:\facultate\an2\semestrul 2\tehnici cad\proiect\proiect-pspicefiles\schematic1\simulare_t


 ****     BJT MODEL PARAMETERS


******************************************************************************




               X_U11.x_lm741.qx 
               NPN             
       LEVEL    1            
          IS  800.000000E-18 
          BF   93.75         
          NF    1            
          BR    1            
          NR    1            
         ISS    0            
          RE    0            
          RC    0            
         CJE    0            
         VJE     .75         
         CJC    0            
         VJC     .75         
         MJC     .33         
        XCJC    1            
         CJS    0            
         VJS     .75         
          KF    0            
          AF    1            
          CN    2.42         
           D     .87         


               X_U12.x_lm741.qx 
               NPN             
       LEVEL    1            
          IS  800.000000E-18 
          BF   93.75         
          NF    1            
          BR    1            
          NR    1            
         ISS    0            
          RE    0            
          RC    0            
         CJE    0            
         VJE     .75         
         CJC    0            
         VJC     .75         
         MJC     .33         
        XCJC    1            
         CJS    0            
         VJS     .75         
          KF    0            
          AF    1            
          CN    2.42         
           D     .87         


               X_U13.x_lm741.qx 
               NPN             
       LEVEL    1            
          IS  800.000000E-18 
          BF   93.75         
          NF    1            
          BR    1            
          NR    1            
         ISS    0            
          RE    0            
          RC    0            
         CJE    0            
         VJE     .75         
         CJC    0            
         VJC     .75         
         MJC     .33         
        XCJC    1            
         CJS    0            
         VJS     .75         
          KF    0            
          AF    1            
          CN    2.42         
           D     .87         


               X_U14.x_lm741.qx 
               NPN             
       LEVEL    1            
          IS  800.000000E-18 
          BF   93.75         
          NF    1            
          BR    1            
          NR    1            
         ISS    0            
          RE    0            
          RC    0            
         CJE    0            
         VJE     .75         
         CJC    0            
         VJC     .75         
         MJC     .33         
        XCJC    1            
         CJS    0            
         VJS     .75         
          KF    0            
          AF    1            
          CN    2.42         
           D     .87         


               X_U15.x_lm741.qx 
               NPN             
       LEVEL    1            
          IS  800.000000E-18 
          BF   93.75         
          NF    1            
          BR    1            
          NR    1            
         ISS    0            
          RE    0            
          RC    0            
         CJE    0            
         VJE     .75         
         CJC    0            
         VJC     .75         
         MJC     .33         
        XCJC    1            
         CJS    0            
         VJS     .75         
          KF    0            
          AF    1            
          CN    2.42         
           D     .87         


               X_U16.x_lm741.qx 
               NPN             
       LEVEL    1            
          IS  800.000000E-18 
          BF   93.75         
          NF    1            
          BR    1            
          NR    1            
         ISS    0            
          RE    0            
          RC    0            
         CJE    0            
         VJE     .75         
         CJC    0            
         VJC     .75         
         MJC     .33         
        XCJC    1            
         CJS    0            
         VJS     .75         
          KF    0            
          AF    1            
          CN    2.42         
           D     .87         


**** 05/26/21 17:04:11 ******* PSpice 17.4.0 (Nov 2018) ******* ID# 0 ********

 ** Profile: "SCHEMATIC1-Simulare_timp"  [ f:\facultate\an2\semestrul 2\tehnici cad\proiect\proiect-pspicefiles\schematic1\simulare_t


 ****     Junction FET MODEL PARAMETERS


******************************************************************************




               X_U17A.jx       X_U17B.jx       
               PJF             PJF             
         VTO   -1              -1            
        BETA  205.000000E-06  205.000000E-06 
          IS   25.000000E-12   25.000000E-12 


**** 05/26/21 17:04:11 ******* PSpice 17.4.0 (Nov 2018) ******* ID# 0 ********

 ** Profile: "SCHEMATIC1-Simulare_timp"  [ f:\facultate\an2\semestrul 2\tehnici cad\proiect\proiect-pspicefiles\schematic1\simulare_t


 ****     INITIAL TRANSIENT SOLUTION       TEMPERATURE =   27.000 DEG C

 ****     CURRENT STEP                     PARAM R =    1     


******************************************************************************



 NODE   VOLTAGE     NODE   VOLTAGE     NODE   VOLTAGE     NODE   VOLTAGE


( +VCC)   12.0000  ( -VCC)  -12.0000  (N00884)   12.0000 (N01960)   20.0000     

(N01967)    6.2487 (N01971)    6.2500 (N02054)    3.6349 (N02279)    3.6342     

(N02363)    5.9965 (N18597)    6.9900 (N18770)    7.9900 (N18946)    8.9900     

(N19125)    9.9900 (N20229)   10.9900 (N21390)   11.7860 (N21394)     .1837     

(N21398)     .1837 (N21402)     .1837 (N21406)     .1837 (N21414)     .1837     

(N21545)    3.2053 (N21549)     .1837 (N21553)     .1837 (N21557)     .1837     

(N21561)     .1837 (N21565)     .1837 (N33107)   11.9990 (N44111)    5.9900     

(X_U17A.6)-270.6E-06                  (X_U17A.7)    6.0237                      

(X_U17A.8)    6.0237                  (X_U17A.9)    0.0000                      

(X_U17B.6)-160.7E-06                  (X_U17B.7)    3.6153                      

(X_U17B.8)    3.6153                  (X_U17B.9)    0.0000                      

(X_U17A.10)    3.1184                 (X_U17A.11)  -11.6600                     

(X_U17A.12)  -11.6610                 (X_U17A.53)   11.0000                     

(X_U17A.54)  -11.0000                 (X_U17A.90)     .3635                     

(X_U17A.91)   25.0000                 (X_U17A.92)  -25.0000                     

(X_U17A.99)    0.0000                 (X_U17B.10)    5.7300                     

(X_U17B.11)  -11.6640                 (X_U17B.12)  -11.6660                     

(X_U17B.53)   11.0000                 (X_U17B.54)  -11.0000                     

(X_U17B.90)    -.2614                 (X_U17B.91)   25.0000                     

(X_U17B.92)  -25.0000                 (X_U17B.99)    0.0000                     

(X_U11.x_lm741.6)    -.1220           (X_U11.x_lm741.7)   13.4260               

(X_U11.x_lm741.8)   13.4260           (X_U11.x_lm741.9)    0.0000               

(X_U12.x_lm741.6)    1.5028           (X_U12.x_lm741.7)   -1.8466               

(X_U12.x_lm741.8)   -1.8466           (X_U12.x_lm741.9)    0.0000               

(X_U13.x_lm741.6)    1.5109           (X_U13.x_lm741.7)   -1.8466               

(X_U13.x_lm741.8)   -1.8466           (X_U13.x_lm741.9)    0.0000               

(X_U14.x_lm741.6)    1.5190           (X_U14.x_lm741.7)   -1.8466               

(X_U14.x_lm741.8)   -1.8466           (X_U14.x_lm741.9)    0.0000               

(X_U15.x_lm741.6)    1.5271           (X_U15.x_lm741.7)   -1.8466               

(X_U15.x_lm741.8)   -1.8466           (X_U15.x_lm741.9)    0.0000               

(X_U16.x_lm741.6)    1.5352           (X_U16.x_lm741.7)   -1.8466               

(X_U16.x_lm741.8)   -1.8466           (X_U16.x_lm741.9)    0.0000               

(X_U11.x_lm741.10)    5.3857          (X_U11.x_lm741.11)   11.9640              

(X_U11.x_lm741.12)   11.9570          (X_U11.x_lm741.13)    5.3984              

(X_U11.x_lm741.14)    5.4007          (X_U11.x_lm741.53)   11.0000              

(X_U11.x_lm741.54)    1.0000          (X_U11.x_lm741.90)   32.7960              

(X_U11.x_lm741.91)   40.0000          (X_U11.x_lm741.92)  -40.0000              

(X_U11.x_lm741.99)    6.0000          (X_U12.x_lm741.10)    6.3503              

(X_U12.x_lm741.11)   11.9200          (X_U12.x_lm741.12)   12.0000              

(X_U12.x_lm741.13)    6.3782          (X_U12.x_lm741.14)    6.3503              

(X_U12.x_lm741.53)   11.0000          (X_U12.x_lm741.54)    1.0000              

(X_U12.x_lm741.90)  -40.6060          (X_U12.x_lm741.91)   40.0000              

(X_U12.x_lm741.92)  -40.0000          (X_U12.x_lm741.99)    6.0000              

(X_U13.x_lm741.10)    7.3500          (X_U13.x_lm741.11)   11.9200              

(X_U13.x_lm741.12)   12.0000          (X_U13.x_lm741.13)    7.3780              

(X_U13.x_lm741.14)    7.3500          (X_U13.x_lm741.53)   11.0000              

(X_U13.x_lm741.54)    1.0000          (X_U13.x_lm741.90)  -40.6060              

(X_U13.x_lm741.91)   40.0000          (X_U13.x_lm741.92)  -40.0000              

(X_U13.x_lm741.99)    6.0000          (X_U14.x_lm741.10)    8.3497              

(X_U14.x_lm741.11)   11.9190          (X_U14.x_lm741.12)   12.0000              

(X_U14.x_lm741.13)    8.3779          (X_U14.x_lm741.14)    8.3497              

(X_U14.x_lm741.53)   11.0000          (X_U14.x_lm741.54)    1.0000              

(X_U14.x_lm741.90)  -40.6060          (X_U14.x_lm741.91)   40.0000              

(X_U14.x_lm741.92)  -40.0000          (X_U14.x_lm741.99)    6.0000              

(X_U15.x_lm741.10)    9.3495          (X_U15.x_lm741.11)   11.9190              

(X_U15.x_lm741.12)   12.0000          (X_U15.x_lm741.13)    9.3778              

(X_U15.x_lm741.14)    9.3495          (X_U15.x_lm741.53)   11.0000              

(X_U15.x_lm741.54)    1.0000          (X_U15.x_lm741.90)  -40.6060              

(X_U15.x_lm741.91)   40.0000          (X_U15.x_lm741.92)  -40.0000              

(X_U15.x_lm741.99)    6.0000          (X_U16.x_lm741.10)   10.3490              

(X_U16.x_lm741.11)   11.9190          (X_U16.x_lm741.12)   12.0000              

(X_U16.x_lm741.13)   10.3780          (X_U16.x_lm741.14)   10.3490              

(X_U16.x_lm741.53)   11.0000          (X_U16.x_lm741.54)    1.0000              

(X_U16.x_lm741.90)  -40.6070          (X_U16.x_lm741.91)   40.0000              

(X_U16.x_lm741.92)  -40.0000          (X_U16.x_lm741.99)    6.0000          




    VOLTAGE SOURCE CURRENTS
    NAME         CURRENT

    V_V1        -1.061E-03
    V_V2        -6.250E-04
    V_V3        -4.800E+03
    V_V4         4.800E+03
    V_V6        -7.326E-08
    V_V7        -1.603E-07
    V_V8        -1.611E-07
    V_V9        -1.619E-07
    V_V10       -1.627E-07
    V_V11       -1.635E-07
    X_U17A.vb   -2.706E-09
    X_U17A.vc    5.004E-12
    X_U17A.ve    1.850E-11
    X_U17A.vlim   3.635E-04
    X_U17A.vlp  -2.464E-11
    X_U17A.vln  -2.536E-11
    X_U17B.vb   -1.607E-09
    X_U17B.vc    7.366E-12
    X_U17B.ve    1.614E-11
    X_U17B.vlim  -2.614E-04
    X_U17B.vlp  -2.526E-11
    X_U17B.vln  -2.474E-11
    X_U11.x_lm741.vb  -1.220E-06
    X_U11.x_lm741.vc  -1.284E-02
    X_U11.x_lm741.ve   1.065E-11
    X_U11.x_lm741.vlim   3.280E-02
    X_U11.x_lm741.vlp  -7.205E-12
    X_U11.x_lm741.vln  -7.280E-11
    X_U12.x_lm741.vb   1.503E-05
    X_U12.x_lm741.vc   1.082E-11
    X_U12.x_lm741.ve  -4.061E-02
    X_U12.x_lm741.vlim  -4.061E-02
    X_U12.x_lm741.vlp  -8.061E-11
    X_U12.x_lm741.vln   1.187E-05
    X_U13.x_lm741.vb   1.511E-05
    X_U13.x_lm741.vc   1.082E-11
    X_U13.x_lm741.ve  -4.061E-02
    X_U13.x_lm741.vlim  -4.061E-02
    X_U13.x_lm741.vlp  -8.061E-11
    X_U13.x_lm741.vln   1.196E-05
    X_U14.x_lm741.vb   1.519E-05
    X_U14.x_lm741.vc   1.082E-11
    X_U14.x_lm741.ve  -4.061E-02
    X_U14.x_lm741.vlim  -4.061E-02
    X_U14.x_lm741.vlp  -8.061E-11
    X_U14.x_lm741.vln   1.204E-05
    X_U15.x_lm741.vb   1.527E-05
    X_U15.x_lm741.vc   1.082E-11
    X_U15.x_lm741.ve  -4.061E-02
    X_U15.x_lm741.vlim  -4.061E-02
    X_U15.x_lm741.vlp  -8.061E-11
    X_U15.x_lm741.vln   1.213E-05
    X_U16.x_lm741.vb   1.535E-05
    X_U16.x_lm741.vc   1.082E-11
    X_U16.x_lm741.ve  -4.061E-02
    X_U16.x_lm741.vlim  -4.061E-02
    X_U16.x_lm741.vlp  -8.061E-11
    X_U16.x_lm741.vln   1.222E-05

    TOTAL POWER DISSIPATION   1.15E+05  WATTS


**** 05/26/21 17:04:11 ******* PSpice 17.4.0 (Nov 2018) ******* ID# 0 ********

 ** Profile: "SCHEMATIC1-Simulare_timp"  [ f:\facultate\an2\semestrul 2\tehnici cad\proiect\proiect-pspicefiles\schematic1\simulare_t


 ****     INITIAL TRANSIENT SOLUTION       TEMPERATURE =   27.000 DEG C

 ****     CURRENT STEP                     PARAM R =    1.5000E+03


******************************************************************************



 NODE   VOLTAGE     NODE   VOLTAGE     NODE   VOLTAGE     NODE   VOLTAGE


( +VCC)   12.0000  ( -VCC)  -12.0000  (N00884)   12.0000 (N01960)   20.0000     

(N01967)    6.2487 (N01971)    6.2500 (N02054)    4.2540 (N02279)    4.2531     

(N02363)    7.0176 (N18597)    6.9900 (N18770)    7.9900 (N18946)    8.9900     

(N19125)    9.9900 (N20229)   10.9900 (N21390)   11.7990 (N21394)   11.7990     

(N21398)     .1837 (N21402)     .1837 (N21406)     .1837 (N21414)     .1837     

(N21545)    3.2058 (N21549)    3.1950 (N21553)     .1837 (N21557)     .1837     

(N21561)     .1837 (N21565)     .1837 (N33107)   10.6370 (N44111)    5.9900     

(X_U17A.6)-316.7E-06                  (X_U17A.7)    7.0495                      

(X_U17A.8)    7.0495                  (X_U17A.9)    0.0000                      

(X_U17B.6)-188.8E-06                  (X_U17B.7)    4.2390                      

(X_U17B.8)    4.2390                  (X_U17B.9)    0.0000                      

(X_U17A.10)    3.7366                 (X_U17A.11)  -11.6610                     

(X_U17A.12)  -11.6620                 (X_U17A.53)   11.0000                     

(X_U17A.54)  -11.0000                 (X_U17A.90)     .4256                     

(X_U17A.91)   25.0000                 (X_U17A.92)  -25.0000                     

(X_U17A.99)    0.0000                 (X_U17B.10)    5.7300                     

(X_U17B.11)  -11.6640                 (X_U17B.12)  -11.6660                     

(X_U17B.53)   11.0000                 (X_U17B.54)  -11.0000                     

(X_U17B.90)    -.1995                 (X_U17B.91)   25.0000                     

(X_U17B.92)  -25.0000                 (X_U17B.99)    0.0000                     

(X_U11.x_lm741.6)   -1.5026           (X_U11.x_lm741.7)   13.8290               

(X_U11.x_lm741.8)   13.8290           (X_U11.x_lm741.9)    0.0000               

(X_U12.x_lm741.6)    -.5078           (X_U12.x_lm741.7)   13.8270               

(X_U12.x_lm741.8)   13.8270           (X_U12.x_lm741.9)    0.0000               

(X_U13.x_lm741.6)    1.5109           (X_U13.x_lm741.7)   -1.8466               

(X_U13.x_lm741.8)   -1.8466           (X_U13.x_lm741.9)    0.0000               

(X_U14.x_lm741.6)    1.5190           (X_U14.x_lm741.7)   -1.8466               

(X_U14.x_lm741.8)   -1.8466           (X_U14.x_lm741.9)    0.0000               

(X_U15.x_lm741.6)    1.5271           (X_U15.x_lm741.7)   -1.8466               

(X_U15.x_lm741.8)   -1.8466           (X_U15.x_lm741.9)    0.0000               

(X_U16.x_lm741.6)    1.5352           (X_U16.x_lm741.7)   -1.8466               

(X_U16.x_lm741.8)   -1.8466           (X_U16.x_lm741.9)    0.0000               

(X_U11.x_lm741.10)    6.3779          (X_U11.x_lm741.11)   12.0000              

(X_U11.x_lm741.12)   11.9200          (X_U11.x_lm741.13)    6.3779              

(X_U11.x_lm741.14)    6.4058          (X_U11.x_lm741.53)   11.0000              

(X_U11.x_lm741.54)    1.0000          (X_U11.x_lm741.90)   40.6100              

(X_U11.x_lm741.91)   40.0000          (X_U11.x_lm741.92)  -40.0000              

(X_U11.x_lm741.99)    6.0000          (X_U12.x_lm741.10)    6.3975              

(X_U12.x_lm741.11)   11.9740          (X_U12.x_lm741.12)   11.9470              

(X_U12.x_lm741.13)    6.4067          (X_U12.x_lm741.14)    6.4162              

(X_U12.x_lm741.53)   11.0000          (X_U12.x_lm741.54)    1.0000              

(X_U12.x_lm741.90)   40.5730          (X_U12.x_lm741.91)   40.0000              

(X_U12.x_lm741.92)  -40.0000          (X_U12.x_lm741.99)    6.0000              

(X_U13.x_lm741.10)    7.3500          (X_U13.x_lm741.11)   11.9200              

(X_U13.x_lm741.12)   12.0000          (X_U13.x_lm741.13)    7.3780              

(X_U13.x_lm741.14)    7.3500          (X_U13.x_lm741.53)   11.0000              

(X_U13.x_lm741.54)    1.0000          (X_U13.x_lm741.90)  -40.6060              

(X_U13.x_lm741.91)   40.0000          (X_U13.x_lm741.92)  -40.0000              

(X_U13.x_lm741.99)    6.0000          (X_U14.x_lm741.10)    8.3497              

(X_U14.x_lm741.11)   11.9190          (X_U14.x_lm741.12)   12.0000              

(X_U14.x_lm741.13)    8.3779          (X_U14.x_lm741.14)    8.3497              

(X_U14.x_lm741.53)   11.0000          (X_U14.x_lm741.54)    1.0000              

(X_U14.x_lm741.90)  -40.6060          (X_U14.x_lm741.91)   40.0000              

(X_U14.x_lm741.92)  -40.0000          (X_U14.x_lm741.99)    6.0000              

(X_U15.x_lm741.10)    9.3495          (X_U15.x_lm741.11)   11.9190              

(X_U15.x_lm741.12)   12.0000          (X_U15.x_lm741.13)    9.3778              

(X_U15.x_lm741.14)    9.3495          (X_U15.x_lm741.53)   11.0000              

(X_U15.x_lm741.54)    1.0000          (X_U15.x_lm741.90)  -40.6060              

(X_U15.x_lm741.91)   40.0000          (X_U15.x_lm741.92)  -40.0000              

(X_U15.x_lm741.99)    6.0000          (X_U16.x_lm741.10)   10.3490              

(X_U16.x_lm741.11)   11.9190          (X_U16.x_lm741.12)   12.0000              

(X_U16.x_lm741.13)   10.3780          (X_U16.x_lm741.14)   10.3490              

(X_U16.x_lm741.53)   11.0000          (X_U16.x_lm741.54)    1.0000              

(X_U16.x_lm741.90)  -40.6070          (X_U16.x_lm741.91)   40.0000              

(X_U16.x_lm741.92)  -40.0000          (X_U16.x_lm741.99)    6.0000          




    VOLTAGE SOURCE CURRENTS
    NAME         CURRENT

    V_V1        -9.086E-04
    V_V2        -6.250E-04
    V_V3        -4.800E+03
    V_V4         4.800E+03
    V_V6         6.015E-12
    V_V7        -5.306E-08
    V_V8        -1.611E-07
    V_V9        -1.619E-07
    V_V10       -1.627E-07
    V_V11       -1.635E-07
    X_U17A.vb   -3.167E-09
    X_U17A.vc    3.983E-12
    X_U17A.ve    1.952E-11
    X_U17A.vlim   4.256E-04
    X_U17A.vlp  -2.458E-11
    X_U17A.vln  -2.543E-11
    X_U17B.vb   -1.888E-09
    X_U17B.vc    6.747E-12
    X_U17B.ve    1.676E-11
    X_U17B.vlim  -1.995E-04
    X_U17B.vlp  -2.520E-11
    X_U17B.vln  -2.480E-11
    X_U11.x_lm741.vb  -1.503E-05
    X_U11.x_lm741.vc  -2.063E-02
    X_U11.x_lm741.ve   1.066E-11
    X_U11.x_lm741.vlim   4.061E-02
    X_U11.x_lm741.vlp   1.387E-05
    X_U11.x_lm741.vln  -8.061E-11
    X_U12.x_lm741.vb  -5.078E-06
    X_U12.x_lm741.vc  -2.056E-02
    X_U12.x_lm741.ve   1.066E-11
    X_U12.x_lm741.vlim   4.057E-02
    X_U12.x_lm741.vlp   3.319E-06
    X_U12.x_lm741.vln  -8.058E-11
    X_U13.x_lm741.vb   1.511E-05
    X_U13.x_lm741.vc   1.082E-11
    X_U13.x_lm741.ve  -4.061E-02
    X_U13.x_lm741.vlim  -4.061E-02
    X_U13.x_lm741.vlp  -8.061E-11
    X_U13.x_lm741.vln   1.196E-05
    X_U14.x_lm741.vb   1.519E-05
    X_U14.x_lm741.vc   1.082E-11
    X_U14.x_lm741.ve  -4.061E-02
    X_U14.x_lm741.vlim  -4.061E-02
    X_U14.x_lm741.vlp  -8.061E-11
    X_U14.x_lm741.vln   1.204E-05
    X_U15.x_lm741.vb   1.527E-05
    X_U15.x_lm741.vc   1.082E-11
    X_U15.x_lm741.ve  -4.061E-02
    X_U15.x_lm741.vlim  -4.061E-02
    X_U15.x_lm741.vlp  -8.061E-11
    X_U15.x_lm741.vln   1.213E-05
    X_U16.x_lm741.vb   1.535E-05
    X_U16.x_lm741.vc   1.082E-11
    X_U16.x_lm741.ve  -4.061E-02
    X_U16.x_lm741.vlim  -4.061E-02
    X_U16.x_lm741.vlp  -8.061E-11
    X_U16.x_lm741.vln   1.222E-05

    TOTAL POWER DISSIPATION   1.15E+05  WATTS


**** 05/26/21 17:04:11 ******* PSpice 17.4.0 (Nov 2018) ******* ID# 0 ********

 ** Profile: "SCHEMATIC1-Simulare_timp"  [ f:\facultate\an2\semestrul 2\tehnici cad\proiect\proiect-pspicefiles\schematic1\simulare_t


 ****     INITIAL TRANSIENT SOLUTION       TEMPERATURE =   27.000 DEG C

 ****     CURRENT STEP                     PARAM R =    3.5000E+03


******************************************************************************



 NODE   VOLTAGE     NODE   VOLTAGE     NODE   VOLTAGE     NODE   VOLTAGE


( +VCC)   12.0000  ( -VCC)  -12.0000  (N00884)   12.0000 (N01960)   20.0000     

(N01967)    6.2487 (N01971)    6.2500 (N02054)    4.8472 (N02279)    4.8462     

(N02363)    7.9962 (N18597)    6.9900 (N18770)    7.9900 (N18946)    8.9900     

(N19125)    9.9900 (N20229)   10.9900 (N21390)   11.7990 (N21394)   11.7990     

(N21398)   11.7850 (N21402)     .1837 (N21406)     .1837 (N21414)     .1837     

(N21545)    3.2058 (N21549)    3.1950 (N21553)    2.1073 (N21557)     .1837     

(N21561)     .1837 (N21565)     .1837 (N33107)    9.3320 (N44111)    5.9900     

(X_U17A.6)-360.9E-06                  (X_U17A.7)    8.0326                      

(X_U17A.8)    8.0326                  (X_U17A.9)    0.0000                      

(X_U17B.6)-215.8E-06                  (X_U17B.7)    4.8367                      

(X_U17B.8)    4.8367                  (X_U17B.9)    0.0000                      

(X_U17A.10)    4.3290                 (X_U17A.11)  -11.6620                     

(X_U17A.12)  -11.6630                 (X_U17A.53)   11.0000                     

(X_U17A.54)  -11.0000                 (X_U17A.90)     .4850                     

(X_U17A.91)   25.0000                 (X_U17A.92)  -25.0000                     

(X_U17A.99)    0.0000                 (X_U17B.10)    5.7300                     

(X_U17B.11)  -11.6640                 (X_U17B.12)  -11.6660                     

(X_U17B.53)   11.0000                 (X_U17B.54)  -11.0000                     

(X_U17B.90)    -.1402                 (X_U17B.91)   25.0000                     

(X_U17B.92)  -25.0000                 (X_U17B.99)    0.0000                     

(X_U11.x_lm741.6)   -1.5094           (X_U11.x_lm741.7)   13.8290               

(X_U11.x_lm741.8)   13.8290           (X_U11.x_lm741.9)    0.0000               

(X_U12.x_lm741.6)   -1.5094           (X_U12.x_lm741.7)   13.8290               

(X_U12.x_lm741.8)   13.8290           (X_U12.x_lm741.9)    0.0000               

(X_U13.x_lm741.6)    -.1166           (X_U13.x_lm741.7)   13.3960               

(X_U13.x_lm741.8)   13.3960           (X_U13.x_lm741.9)    0.0000               

(X_U14.x_lm741.6)    1.5190           (X_U14.x_lm741.7)   -1.8466               

(X_U14.x_lm741.8)   -1.8466           (X_U14.x_lm741.9)    0.0000               

(X_U15.x_lm741.6)    1.5271           (X_U15.x_lm741.7)   -1.8466               

(X_U15.x_lm741.8)   -1.8466           (X_U15.x_lm741.9)    0.0000               

(X_U16.x_lm741.6)    1.5352           (X_U16.x_lm741.7)   -1.8466               

(X_U16.x_lm741.8)   -1.8466           (X_U16.x_lm741.9)    0.0000               

(X_U11.x_lm741.10)    7.3562          (X_U11.x_lm741.11)   12.0000              

(X_U11.x_lm741.12)   11.9200          (X_U11.x_lm741.13)    7.3562              

(X_U11.x_lm741.14)    7.3842          (X_U11.x_lm741.53)   11.0000              

(X_U11.x_lm741.54)    1.0000          (X_U11.x_lm741.90)   40.6100              

(X_U11.x_lm741.91)   40.0000          (X_U11.x_lm741.92)  -40.0000              

(X_U11.x_lm741.99)    6.0000          (X_U12.x_lm741.10)    7.3562              

(X_U12.x_lm741.11)   12.0000          (X_U12.x_lm741.12)   11.9200              

(X_U12.x_lm741.13)    7.3562          (X_U12.x_lm741.14)    7.3842              

(X_U12.x_lm741.53)   11.0000          (X_U12.x_lm741.54)    1.0000              

(X_U12.x_lm741.90)   40.6100          (X_U12.x_lm741.91)   40.0000              

(X_U12.x_lm741.92)  -40.0000          (X_U12.x_lm741.99)    6.0000              

(X_U13.x_lm741.10)    7.3851          (X_U13.x_lm741.11)   11.9630              

(X_U13.x_lm741.12)   11.9570          (X_U13.x_lm741.13)    7.3980              

(X_U13.x_lm741.14)    7.4002          (X_U13.x_lm741.53)   11.0000              

(X_U13.x_lm741.54)    1.0000          (X_U13.x_lm741.90)   32.2150              

(X_U13.x_lm741.91)   40.0000          (X_U13.x_lm741.92)  -40.0000              

(X_U13.x_lm741.99)    6.0000          (X_U14.x_lm741.10)    8.3497              

(X_U14.x_lm741.11)   11.9190          (X_U14.x_lm741.12)   12.0000              

(X_U14.x_lm741.13)    8.3779          (X_U14.x_lm741.14)    8.3497              

(X_U14.x_lm741.53)   11.0000          (X_U14.x_lm741.54)    1.0000              

(X_U14.x_lm741.90)  -40.6060          (X_U14.x_lm741.91)   40.0000              

(X_U14.x_lm741.92)  -40.0000          (X_U14.x_lm741.99)    6.0000              

(X_U15.x_lm741.10)    9.3495          (X_U15.x_lm741.11)   11.9190              

(X_U15.x_lm741.12)   12.0000          (X_U15.x_lm741.13)    9.3778              

(X_U15.x_lm741.14)    9.3495          (X_U15.x_lm741.53)   11.0000              

(X_U15.x_lm741.54)    1.0000          (X_U15.x_lm741.90)  -40.6060              

(X_U15.x_lm741.91)   40.0000          (X_U15.x_lm741.92)  -40.0000              

(X_U15.x_lm741.99)    6.0000          (X_U16.x_lm741.10)   10.3490              

(X_U16.x_lm741.11)   11.9190          (X_U16.x_lm741.12)   12.0000              

(X_U16.x_lm741.13)   10.3780          (X_U16.x_lm741.14)   10.3490              

(X_U16.x_lm741.53)   11.0000          (X_U16.x_lm741.54)    1.0000              

(X_U16.x_lm741.90)  -40.6070          (X_U16.x_lm741.91)   40.0000              

(X_U16.x_lm741.92)  -40.0000          (X_U16.x_lm741.99)    6.0000          




    VOLTAGE SOURCE CURRENTS
    NAME         CURRENT

    V_V1        -7.623E-04
    V_V2        -6.250E-04
    V_V3        -4.800E+03
    V_V4         4.800E+03
    V_V6         6.025E-12
    V_V7         5.015E-12
    V_V8        -7.429E-08
    V_V9        -1.619E-07
    V_V10       -1.627E-07
    V_V11       -1.635E-07
    X_U17A.vb   -3.609E-09
    X_U17A.vc    3.005E-12
    X_U17A.ve    2.050E-11
    X_U17A.vlim   4.850E-04
    X_U17A.vlp  -2.452E-11
    X_U17A.vln  -2.549E-11
    X_U17B.vb   -2.158E-09
    X_U17B.vc    6.154E-12
    X_U17B.ve    1.735E-11
    X_U17B.vlim  -1.402E-04
    X_U17B.vlp  -2.514E-11
    X_U17B.vln  -2.486E-11
    X_U11.x_lm741.vb  -1.509E-05
    X_U11.x_lm741.vc  -2.063E-02
    X_U11.x_lm741.ve   1.066E-11
    X_U11.x_lm741.vlim   4.061E-02
    X_U11.x_lm741.vlp   1.394E-05
    X_U11.x_lm741.vln  -8.061E-11
    X_U12.x_lm741.vb  -1.509E-05
    X_U12.x_lm741.vc  -2.060E-02
    X_U12.x_lm741.ve   1.066E-11
    X_U12.x_lm741.vlim   4.061E-02
    X_U12.x_lm741.vlp   1.394E-05
    X_U12.x_lm741.vln  -8.061E-11
    X_U13.x_lm741.vb  -1.166E-06
    X_U13.x_lm741.vc  -1.226E-02
    X_U13.x_lm741.ve   1.065E-11
    X_U13.x_lm741.vlim   3.221E-02
    X_U13.x_lm741.vlp  -7.786E-12
    X_U13.x_lm741.vln  -7.222E-11
    X_U14.x_lm741.vb   1.519E-05
    X_U14.x_lm741.vc   1.082E-11
    X_U14.x_lm741.ve  -4.061E-02
    X_U14.x_lm741.vlim  -4.061E-02
    X_U14.x_lm741.vlp  -8.061E-11
    X_U14.x_lm741.vln   1.204E-05
    X_U15.x_lm741.vb   1.527E-05
    X_U15.x_lm741.vc   1.082E-11
    X_U15.x_lm741.ve  -4.061E-02
    X_U15.x_lm741.vlim  -4.061E-02
    X_U15.x_lm741.vlp  -8.061E-11
    X_U15.x_lm741.vln   1.213E-05
    X_U16.x_lm741.vb   1.535E-05
    X_U16.x_lm741.vc   1.082E-11
    X_U16.x_lm741.ve  -4.061E-02
    X_U16.x_lm741.vlim  -4.061E-02
    X_U16.x_lm741.vlp  -8.061E-11
    X_U16.x_lm741.vln   1.222E-05

    TOTAL POWER DISSIPATION   1.15E+05  WATTS


**** 05/26/21 17:04:11 ******* PSpice 17.4.0 (Nov 2018) ******* ID# 0 ********

 ** Profile: "SCHEMATIC1-Simulare_timp"  [ f:\facultate\an2\semestrul 2\tehnici cad\proiect\proiect-pspicefiles\schematic1\simulare_t


 ****     INITIAL TRANSIENT SOLUTION       TEMPERATURE =   27.000 DEG C

 ****     CURRENT STEP                     PARAM R =    6.5000E+03


******************************************************************************



 NODE   VOLTAGE     NODE   VOLTAGE     NODE   VOLTAGE     NODE   VOLTAGE


( +VCC)   12.0000  ( -VCC)  -12.0000  (N00884)   12.0000 (N01960)   20.0000     

(N01967)    6.2487 (N01971)    6.2500 (N02054)    5.4485 (N02279)    5.4473     

(N02363)    8.9881 (N18597)    6.9900 (N18770)    7.9900 (N18946)    8.9900     

(N19125)    9.9900 (N20229)   10.9900 (N21390)   11.7990 (N21394)   11.7990     

(N21398)   11.7990 (N21402)     .2440 (N21406)     .1837 (N21414)     .1837     

(N21545)    3.2058 (N21549)    3.1950 (N21553)    2.1080 (N21557)     .2440     

(N21561)     .1837 (N21565)     .1837 (N33107)    8.0092 (N44111)    5.9900     

(X_U17A.6)-405.6E-06                  (X_U17A.7)    9.0290                      

(X_U17A.8)    9.0290                  (X_U17A.9)    0.0000                      

(X_U17B.6)-243.1E-06                  (X_U17B.7)    5.4425                      

(X_U17B.8)    5.4425                  (X_U17B.9)    0.0000                      

(X_U17A.10)    4.9295                 (X_U17A.11)  -11.6630                     

(X_U17A.12)  -11.6640                 (X_U17A.53)   11.0000                     

(X_U17A.54)  -11.0000                 (X_U17A.90)     .5453                     

(X_U17A.91)   25.0000                 (X_U17A.92)  -25.0000                     

(X_U17A.99)    0.0000                 (X_U17B.10)    5.7300                     

(X_U17B.11)  -11.6640                 (X_U17B.12)  -11.6660                     

(X_U17B.53)   11.0000                 (X_U17B.54)  -11.0000                     

(X_U17B.90)    -.0800                 (X_U17B.91)   25.0000                     

(X_U17B.92)  -25.0000                 (X_U17B.99)    0.0000                     

(X_U11.x_lm741.6)   -1.5162           (X_U11.x_lm741.7)   13.8290               

(X_U11.x_lm741.8)   13.8290           (X_U11.x_lm741.9)    0.0000               

(X_U12.x_lm741.6)   -1.5162           (X_U12.x_lm741.7)   13.8290               

(X_U12.x_lm741.8)   13.8290           (X_U12.x_lm741.9)    0.0000               

(X_U13.x_lm741.6)   -1.5162           (X_U13.x_lm741.7)   13.8290               

(X_U13.x_lm741.8)   13.8290           (X_U13.x_lm741.9)    0.0000               

(X_U14.x_lm741.6)     .0379           (X_U14.x_lm741.7)     .0460               

(X_U14.x_lm741.8)     .0460           (X_U14.x_lm741.9)    0.0000               

(X_U15.x_lm741.6)    1.5271           (X_U15.x_lm741.7)   -1.8466               

(X_U15.x_lm741.8)   -1.8466           (X_U15.x_lm741.9)    0.0000               

(X_U16.x_lm741.6)    1.5352           (X_U16.x_lm741.7)   -1.8466               

(X_U16.x_lm741.8)   -1.8466           (X_U16.x_lm741.9)    0.0000               

(X_U11.x_lm741.10)    8.3478          (X_U11.x_lm741.11)   12.0000              

(X_U11.x_lm741.12)   11.9190          (X_U11.x_lm741.13)    8.3478              

(X_U11.x_lm741.14)    8.3760          (X_U11.x_lm741.53)   11.0000              

(X_U11.x_lm741.54)    1.0000          (X_U11.x_lm741.90)   40.6100              

(X_U11.x_lm741.91)   40.0000          (X_U11.x_lm741.92)  -40.0000              

(X_U11.x_lm741.99)    6.0000          (X_U12.x_lm741.10)    8.3478              

(X_U12.x_lm741.11)   12.0000          (X_U12.x_lm741.12)   11.9190              

(X_U12.x_lm741.13)    8.3478          (X_U12.x_lm741.14)    8.3760              

(X_U12.x_lm741.53)   11.0000          (X_U12.x_lm741.54)    1.0000              

(X_U12.x_lm741.90)   40.6100          (X_U12.x_lm741.91)   40.0000              

(X_U12.x_lm741.92)  -40.0000          (X_U12.x_lm741.99)    6.0000              

(X_U13.x_lm741.10)    8.3478          (X_U13.x_lm741.11)   12.0000              

(X_U13.x_lm741.12)   11.9190          (X_U13.x_lm741.13)    8.3478              

(X_U13.x_lm741.14)    8.3760          (X_U13.x_lm741.53)   11.0000              

(X_U13.x_lm741.54)    1.0000          (X_U13.x_lm741.90)   40.6100              

(X_U13.x_lm741.91)   40.0000          (X_U13.x_lm741.92)  -40.0000              

(X_U13.x_lm741.99)    6.0000          (X_U14.x_lm741.10)    8.3808              

(X_U14.x_lm741.11)   11.9590          (X_U14.x_lm741.12)   11.9610              

(X_U14.x_lm741.13)    8.3952          (X_U14.x_lm741.14)    8.3945              

(X_U14.x_lm741.53)   11.0000          (X_U14.x_lm741.54)    1.0000              

(X_U14.x_lm741.90)   -3.9599          (X_U14.x_lm741.91)   40.0000              

(X_U14.x_lm741.92)  -40.0000          (X_U14.x_lm741.99)    6.0000              

(X_U15.x_lm741.10)    9.3495          (X_U15.x_lm741.11)   11.9190              

(X_U15.x_lm741.12)   12.0000          (X_U15.x_lm741.13)    9.3778              

(X_U15.x_lm741.14)    9.3495          (X_U15.x_lm741.53)   11.0000              

(X_U15.x_lm741.54)    1.0000          (X_U15.x_lm741.90)  -40.6060              

(X_U15.x_lm741.91)   40.0000          (X_U15.x_lm741.92)  -40.0000              

(X_U15.x_lm741.99)    6.0000          (X_U16.x_lm741.10)   10.3490              

(X_U16.x_lm741.11)   11.9190          (X_U16.x_lm741.12)   12.0000              

(X_U16.x_lm741.13)   10.3780          (X_U16.x_lm741.14)   10.3490              

(X_U16.x_lm741.53)   11.0000          (X_U16.x_lm741.54)    1.0000              

(X_U16.x_lm741.90)  -40.6070          (X_U16.x_lm741.91)   40.0000              

(X_U16.x_lm741.92)  -40.0000          (X_U16.x_lm741.99)    6.0000          




    VOLTAGE SOURCE CURRENTS
    NAME         CURRENT

    V_V1        -6.140E-04
    V_V2        -6.250E-04
    V_V3        -4.800E+03
    V_V4         4.800E+03
    V_V6         6.036E-12
    V_V7         5.025E-12
    V_V8         4.015E-12
    V_V9        -8.290E-08
    V_V10       -1.627E-07
    V_V11       -1.635E-07
    X_U17A.vb   -4.056E-09
    X_U17A.vc    2.013E-12
    X_U17A.ve    2.149E-11
    X_U17A.vlim   5.453E-04
    X_U17A.vlp  -2.446E-11
    X_U17A.vln  -2.555E-11
    X_U17B.vb   -2.431E-09
    X_U17B.vc    5.552E-12
    X_U17B.ve    1.795E-11
    X_U17B.vlim  -8.002E-05
    X_U17B.vlp  -2.508E-11
    X_U17B.vln  -2.492E-11
    X_U11.x_lm741.vb  -1.516E-05
    X_U11.x_lm741.vc  -2.063E-02
    X_U11.x_lm741.ve   1.066E-11
    X_U11.x_lm741.vlim   4.061E-02
    X_U11.x_lm741.vlp   1.401E-05
    X_U11.x_lm741.vln  -8.061E-11
    X_U12.x_lm741.vb  -1.516E-05
    X_U12.x_lm741.vc  -2.060E-02
    X_U12.x_lm741.ve   1.066E-11
    X_U12.x_lm741.vlim   4.061E-02
    X_U12.x_lm741.vlp   1.401E-05
    X_U12.x_lm741.vln  -8.061E-11
    X_U13.x_lm741.vb  -1.516E-05
    X_U13.x_lm741.vc  -2.063E-02
    X_U13.x_lm741.ve   1.066E-11
    X_U13.x_lm741.vlim   4.061E-02
    X_U13.x_lm741.vlp   1.401E-05
    X_U13.x_lm741.vln  -8.061E-11
    X_U14.x_lm741.vb   3.792E-07
    X_U14.x_lm741.vc   1.076E-11
    X_U14.x_lm741.ve  -3.960E-03
    X_U14.x_lm741.vlim  -3.960E-03
    X_U14.x_lm741.vlp  -4.396E-11
    X_U14.x_lm741.vln  -3.604E-11
    X_U15.x_lm741.vb   1.527E-05
    X_U15.x_lm741.vc   1.082E-11
    X_U15.x_lm741.ve  -4.061E-02
    X_U15.x_lm741.vlim  -4.061E-02
    X_U15.x_lm741.vlp  -8.061E-11
    X_U15.x_lm741.vln   1.213E-05
    X_U16.x_lm741.vb   1.535E-05
    X_U16.x_lm741.vc   1.082E-11
    X_U16.x_lm741.ve  -4.061E-02
    X_U16.x_lm741.vlim  -4.061E-02
    X_U16.x_lm741.vlp  -8.061E-11
    X_U16.x_lm741.vln   1.222E-05

    TOTAL POWER DISSIPATION   1.15E+05  WATTS


**** 05/26/21 17:04:11 ******* PSpice 17.4.0 (Nov 2018) ******* ID# 0 ********

 ** Profile: "SCHEMATIC1-Simulare_timp"  [ f:\facultate\an2\semestrul 2\tehnici cad\proiect\proiect-pspicefiles\schematic1\simulare_t


 ****     INITIAL TRANSIENT SOLUTION       TEMPERATURE =   27.000 DEG C

 ****     CURRENT STEP                     PARAM R =   11.5000E+03


******************************************************************************



 NODE   VOLTAGE     NODE   VOLTAGE     NODE   VOLTAGE     NODE   VOLTAGE


( +VCC)   12.0000  ( -VCC)  -12.0000  (N00884)   12.0000 (N01960)   20.0000     

(N01967)    6.2487 (N01971)    6.2500 (N02054)    6.0580 (N02279)    6.0567     

(N02363)    9.9935 (N18597)    6.9900 (N18770)    7.9900 (N18946)    8.9900     

(N19125)    9.9900 (N20229)   10.9900 (N21390)   11.7990 (N21394)   11.7990     

(N21398)   11.7990 (N21402)   11.7990 (N21406)   11.7700 (N21414)     .1837     

(N21545)    3.2058 (N21549)    3.1950 (N21553)    2.1080 (N21557)    2.0039     

(N21561)    2.3147 (N21565)     .1837 (N33107)    6.6683 (N44111)    5.9900     

(X_U17A.6)-451.0E-06                  (X_U17A.7)   10.0390                      

(X_U17A.8)   10.0390                  (X_U17A.9)    0.0000                      

(X_U17B.6)-270.7E-06                  (X_U17B.7)    6.0565                      

(X_U17B.8)    6.0565                  (X_U17B.9)    0.0000                      

(X_U17A.10)    5.5382                 (X_U17A.11)  -11.6640                     

(X_U17A.12)  -11.6660                 (X_U17A.53)   11.0000                     

(X_U17A.54)  -11.0000                 (X_U17A.90)     .6064                     

(X_U17A.91)   25.0000                 (X_U17A.92)  -25.0000                     

(X_U17A.99)    0.0000                 (X_U17B.10)    5.7300                     

(X_U17B.11)  -11.6640                 (X_U17B.12)  -11.6660                     

(X_U17B.53)   11.0000                 (X_U17B.54)  -11.0000                     

(X_U17B.90)    -.0191                 (X_U17B.91)   25.0000                     

(X_U17B.92)  -25.0000                 (X_U17B.99)    0.0000                     

(X_U11.x_lm741.6)   -1.5231           (X_U11.x_lm741.7)   13.8290               

(X_U11.x_lm741.8)   13.8290           (X_U11.x_lm741.9)    0.0000               

(X_U12.x_lm741.6)   -1.5231           (X_U12.x_lm741.7)   13.8290               

(X_U12.x_lm741.8)   13.8290           (X_U12.x_lm741.9)    0.0000               

(X_U13.x_lm741.6)   -1.5231           (X_U13.x_lm741.7)   13.8290               

(X_U13.x_lm741.8)   13.8290           (X_U13.x_lm741.9)    0.0000               

(X_U14.x_lm741.6)   -1.5231           (X_U14.x_lm741.7)   13.8290               

(X_U14.x_lm741.8)   13.8290           (X_U14.x_lm741.9)    0.0000               

(X_U15.x_lm741.6)    -.0650           (X_U15.x_lm741.7)   13.1050               

(X_U15.x_lm741.8)   13.1050           (X_U15.x_lm741.9)    0.0000               

(X_U16.x_lm741.6)    1.5352           (X_U16.x_lm741.7)   -1.8466               

(X_U16.x_lm741.8)   -1.8466           (X_U16.x_lm741.9)    0.0000               

(X_U11.x_lm741.10)    9.3530          (X_U11.x_lm741.11)   12.0000              

(X_U11.x_lm741.12)   11.9190          (X_U11.x_lm741.13)    9.3530              

(X_U11.x_lm741.14)    9.3813          (X_U11.x_lm741.53)   11.0000              

(X_U11.x_lm741.54)    1.0000          (X_U11.x_lm741.90)   40.6100              

(X_U11.x_lm741.91)   40.0000          (X_U11.x_lm741.92)  -40.0000              

(X_U11.x_lm741.99)    6.0000          (X_U12.x_lm741.10)    9.3530              

(X_U12.x_lm741.11)   12.0000          (X_U12.x_lm741.12)   11.9190              

(X_U12.x_lm741.13)    9.3530          (X_U12.x_lm741.14)    9.3813              

(X_U12.x_lm741.53)   11.0000          (X_U12.x_lm741.54)    1.0000              

(X_U12.x_lm741.90)   40.6100          (X_U12.x_lm741.91)   40.0000              

(X_U12.x_lm741.92)  -40.0000          (X_U12.x_lm741.99)    6.0000              

(X_U13.x_lm741.10)    9.3530          (X_U13.x_lm741.11)   12.0000              

(X_U13.x_lm741.12)   11.9190          (X_U13.x_lm741.13)    9.3530              

(X_U13.x_lm741.14)    9.3813          (X_U13.x_lm741.53)   11.0000              

(X_U13.x_lm741.54)    1.0000          (X_U13.x_lm741.90)   40.6100              

(X_U13.x_lm741.91)   40.0000          (X_U13.x_lm741.92)  -40.0000              

(X_U13.x_lm741.99)    6.0000          (X_U14.x_lm741.10)    9.3530              

(X_U14.x_lm741.11)   12.0000          (X_U14.x_lm741.12)   11.9190              

(X_U14.x_lm741.13)    9.3530          (X_U14.x_lm741.14)    9.3813              

(X_U14.x_lm741.53)   11.0000          (X_U14.x_lm741.54)    1.0000              

(X_U14.x_lm741.90)   40.6100          (X_U14.x_lm741.91)   40.0000              

(X_U14.x_lm741.92)  -40.0000          (X_U14.x_lm741.99)    6.0000              

(X_U15.x_lm741.10)    9.3833          (X_U15.x_lm741.11)   11.9610              

(X_U15.x_lm741.12)   11.9580          (X_U15.x_lm741.13)    9.3969              

(X_U15.x_lm741.14)    9.3981          (X_U15.x_lm741.53)   11.0000              

(X_U15.x_lm741.54)    1.0000          (X_U15.x_lm741.90)   26.7000              

(X_U15.x_lm741.91)   40.0000          (X_U15.x_lm741.92)  -40.0000              

(X_U15.x_lm741.99)    6.0000          (X_U16.x_lm741.10)   10.3490              

(X_U16.x_lm741.11)   11.9190          (X_U16.x_lm741.12)   12.0000              

(X_U16.x_lm741.13)   10.3780          (X_U16.x_lm741.14)   10.3490              

(X_U16.x_lm741.53)   11.0000          (X_U16.x_lm741.54)    1.0000              

(X_U16.x_lm741.90)  -40.6070          (X_U16.x_lm741.91)   40.0000              

(X_U16.x_lm741.92)  -40.0000          (X_U16.x_lm741.99)    6.0000          




    VOLTAGE SOURCE CURRENTS
    NAME         CURRENT

    V_V1        -4.636E-04
    V_V2        -6.250E-04
    V_V3        -4.800E+03
    V_V4         4.800E+03
    V_V6         6.047E-12
    V_V7         5.036E-12
    V_V8         4.025E-12
    V_V9         3.015E-12
    V_V10       -7.778E-08
    V_V11       -1.635E-07
    X_U17A.vb   -4.510E-09
    X_U17A.vc    1.007E-12
    X_U17A.ve    2.250E-11
    X_U17A.vlim   6.064E-04
    X_U17A.vlp  -2.439E-11
    X_U17A.vln  -2.561E-11
    X_U17B.vb   -2.707E-09
    X_U17B.vc    4.943E-12
    X_U17B.ve    1.856E-11
    X_U17B.vlim  -1.907E-05
    X_U17B.vlp  -2.502E-11
    X_U17B.vln  -2.498E-11
    X_U11.x_lm741.vb  -1.523E-05
    X_U11.x_lm741.vc  -2.063E-02
    X_U11.x_lm741.ve   1.066E-11
    X_U11.x_lm741.vlim   4.061E-02
    X_U11.x_lm741.vlp   1.409E-05
    X_U11.x_lm741.vln  -8.061E-11
    X_U12.x_lm741.vb  -1.523E-05
    X_U12.x_lm741.vc  -2.060E-02
    X_U12.x_lm741.ve   1.066E-11
    X_U12.x_lm741.vlim   4.061E-02
    X_U12.x_lm741.vlp   1.409E-05
    X_U12.x_lm741.vln  -8.061E-11
    X_U13.x_lm741.vb  -1.523E-05
    X_U13.x_lm741.vc  -2.063E-02
    X_U13.x_lm741.ve   1.066E-11
    X_U13.x_lm741.vlim   4.061E-02
    X_U13.x_lm741.vlp   1.409E-05
    X_U13.x_lm741.vln  -8.061E-11
    X_U14.x_lm741.vb  -1.523E-05
    X_U14.x_lm741.vc  -2.062E-02
    X_U14.x_lm741.ve   1.066E-11
    X_U14.x_lm741.vlim   4.061E-02
    X_U14.x_lm741.vlp   1.409E-05
    X_U14.x_lm741.vln  -8.061E-11
    X_U15.x_lm741.vb  -6.496E-07
    X_U15.x_lm741.vc  -6.794E-03
    X_U15.x_lm741.ve   1.063E-11
    X_U15.x_lm741.vlim   2.670E-02
    X_U15.x_lm741.vlp  -1.330E-11
    X_U15.x_lm741.vln  -6.670E-11
    X_U16.x_lm741.vb   1.535E-05
    X_U16.x_lm741.vc   1.082E-11
    X_U16.x_lm741.ve  -4.061E-02
    X_U16.x_lm741.vlim  -4.061E-02
    X_U16.x_lm741.vlp  -8.061E-11
    X_U16.x_lm741.vln   1.222E-05

    TOTAL POWER DISSIPATION   1.15E+05  WATTS


**** 05/26/21 17:04:11 ******* PSpice 17.4.0 (Nov 2018) ******* ID# 0 ********

 ** Profile: "SCHEMATIC1-Simulare_timp"  [ f:\facultate\an2\semestrul 2\tehnici cad\proiect\proiect-pspicefiles\schematic1\simulare_t


 ****     INITIAL TRANSIENT SOLUTION       TEMPERATURE =   27.000 DEG C

 ****     CURRENT STEP                     PARAM R =   21.5000E+03


******************************************************************************



 NODE   VOLTAGE     NODE   VOLTAGE     NODE   VOLTAGE     NODE   VOLTAGE


( +VCC)   12.0000  ( -VCC)  -12.0000  (N00884)   12.0000 (N01960)   20.0000     

(N01967)    6.2487 (N01971)    6.2500 (N02054)    6.6758 (N02279)    6.6744     

(N02363)   11.0130 (N18597)    6.9900 (N18770)    7.9900 (N18946)    8.9900     

(N19125)    9.9900 (N20229)   10.9900 (N21390)   11.7990 (N21394)   11.7990     

(N21398)   11.7990 (N21402)   11.7990 (N21406)   11.7990 (N21414)   11.7990     

(N21545)    3.2058 (N21549)    3.1950 (N21553)    2.1080 (N21557)    2.0039     

(N21561)    2.3155 (N21565)    2.9559 (N33107)    5.3089 (N44111)    5.9900     

(X_U17A.6)-497.0E-06                  (X_U17A.7)   11.0630                      

(X_U17A.8)   11.0630                  (X_U17A.9)    0.0000                      

(X_U17B.6)-298.8E-06                  (X_U17B.7)    6.6791                      

(X_U17B.8)    6.6791                  (X_U17B.9)    0.0000                      

(X_U17A.10)    6.1552                 (X_U17A.11)  -11.6650                     

(X_U17A.12)  -11.6670                 (X_U17A.53)   11.0000                     

(X_U17A.54)  -11.0000                 (X_U17A.90)     .6684                     

(X_U17A.91)   25.0000                 (X_U17A.92)  -25.0000                     

(X_U17A.99)    0.0000                 (X_U17B.10)    5.7300                     

(X_U17B.11)  -11.6640                 (X_U17B.12)  -11.6660                     

(X_U17B.53)   11.0000                 (X_U17B.54)  -11.0000                     

(X_U17B.90)     .0427                 (X_U17B.91)   25.0000                     

(X_U17B.92)  -25.0000                 (X_U17B.99)    0.0000                     

(X_U11.x_lm741.6)   -1.5302           (X_U11.x_lm741.7)   13.8290               

(X_U11.x_lm741.8)   13.8290           (X_U11.x_lm741.9)    0.0000               

(X_U12.x_lm741.6)   -1.5302           (X_U12.x_lm741.7)   13.8290               

(X_U12.x_lm741.8)   13.8290           (X_U12.x_lm741.9)    0.0000               

(X_U13.x_lm741.6)   -1.5302           (X_U13.x_lm741.7)   13.8290               

(X_U13.x_lm741.8)   13.8290           (X_U13.x_lm741.9)    0.0000               

(X_U14.x_lm741.6)   -1.5302           (X_U14.x_lm741.7)   13.8290               

(X_U14.x_lm741.8)   13.8290           (X_U14.x_lm741.9)    0.0000               

(X_U15.x_lm741.6)   -1.5302           (X_U15.x_lm741.7)   13.8290               

(X_U15.x_lm741.8)   13.8290           (X_U15.x_lm741.9)    0.0000               

(X_U16.x_lm741.6)    -.4258           (X_U16.x_lm741.7)   13.8270               

(X_U16.x_lm741.8)   13.8270           (X_U16.x_lm741.9)    0.0000               

(X_U11.x_lm741.10)   10.3720          (X_U11.x_lm741.11)   12.0000              

(X_U11.x_lm741.12)   11.9190          (X_U11.x_lm741.13)   10.3720              

(X_U11.x_lm741.14)   10.4000          (X_U11.x_lm741.53)   11.0000              

(X_U11.x_lm741.54)    1.0000          (X_U11.x_lm741.90)   40.6100              

(X_U11.x_lm741.91)   40.0000          (X_U11.x_lm741.92)  -40.0000              

(X_U11.x_lm741.99)    6.0000          (X_U12.x_lm741.10)   10.3720              

(X_U12.x_lm741.11)   12.0000          (X_U12.x_lm741.12)   11.9190              

(X_U12.x_lm741.13)   10.3720          (X_U12.x_lm741.14)   10.4000              

(X_U12.x_lm741.53)   11.0000          (X_U12.x_lm741.54)    1.0000              

(X_U12.x_lm741.90)   40.6100          (X_U12.x_lm741.91)   40.0000              

(X_U12.x_lm741.92)  -40.0000          (X_U12.x_lm741.99)    6.0000              

(X_U13.x_lm741.10)   10.3720          (X_U13.x_lm741.11)   12.0000              

(X_U13.x_lm741.12)   11.9190          (X_U13.x_lm741.13)   10.3720              

(X_U13.x_lm741.14)   10.4000          (X_U13.x_lm741.53)   11.0000              

(X_U13.x_lm741.54)    1.0000          (X_U13.x_lm741.90)   40.6100              

(X_U13.x_lm741.91)   40.0000          (X_U13.x_lm741.92)  -40.0000              

(X_U13.x_lm741.99)    6.0000          (X_U14.x_lm741.10)   10.3720              

(X_U14.x_lm741.11)   12.0000          (X_U14.x_lm741.12)   11.9190              

(X_U14.x_lm741.13)   10.3720          (X_U14.x_lm741.14)   10.4000              

(X_U14.x_lm741.53)   11.0000          (X_U14.x_lm741.54)    1.0000              

(X_U14.x_lm741.90)   40.6100          (X_U14.x_lm741.91)   40.0000              

(X_U14.x_lm741.92)  -40.0000          (X_U14.x_lm741.99)    6.0000              

(X_U15.x_lm741.10)   10.3720          (X_U15.x_lm741.11)   12.0000              

(X_U15.x_lm741.12)   11.9190          (X_U15.x_lm741.13)   10.3720              

(X_U15.x_lm741.14)   10.4000          (X_U15.x_lm741.53)   11.0000              

(X_U15.x_lm741.54)    1.0000          (X_U15.x_lm741.90)   40.6100              

(X_U15.x_lm741.91)   40.0000          (X_U15.x_lm741.92)  -40.0000              

(X_U15.x_lm741.99)    6.0000          (X_U16.x_lm741.10)   10.3940              

(X_U16.x_lm741.11)   11.9710          (X_U16.x_lm741.12)   11.9480              

(X_U16.x_lm741.13)   10.4040          (X_U16.x_lm741.14)   10.4120              

(X_U16.x_lm741.53)   11.0000          (X_U16.x_lm741.54)    1.0000              

(X_U16.x_lm741.90)   40.5650          (X_U16.x_lm741.91)   40.0000              

(X_U16.x_lm741.92)  -40.0000          (X_U16.x_lm741.99)    6.0000          




    VOLTAGE SOURCE CURRENTS
    NAME         CURRENT

    V_V1        -3.112E-04
    V_V2        -6.250E-04
    V_V3        -4.800E+03
    V_V4         4.800E+03
    V_V6         6.058E-12
    V_V7         5.047E-12
    V_V8         4.036E-12
    V_V9         3.026E-12
    V_V10        2.015E-12
    V_V11       -5.891E-08
    X_U17A.vb   -4.970E-09
    X_U17A.vc   -1.331E-14
    X_U17A.ve    2.352E-11
    X_U17A.vlim   6.684E-04
    X_U17A.vlp  -2.433E-11
    X_U17A.vln  -2.567E-11
    X_U17B.vb   -2.988E-09
    X_U17B.vc    4.325E-12
    X_U17B.ve    1.918E-11
    X_U17B.vlim   4.272E-05
    X_U17B.vlp  -2.496E-11
    X_U17B.vln  -2.504E-11
    X_U11.x_lm741.vb  -1.530E-05
    X_U11.x_lm741.vc  -2.063E-02
    X_U11.x_lm741.ve   1.066E-11
    X_U11.x_lm741.vlim   4.061E-02
    X_U11.x_lm741.vlp   1.416E-05
    X_U11.x_lm741.vln  -8.061E-11
    X_U12.x_lm741.vb  -1.530E-05
    X_U12.x_lm741.vc  -2.060E-02
    X_U12.x_lm741.ve   1.066E-11
    X_U12.x_lm741.vlim   4.061E-02
    X_U12.x_lm741.vlp   1.416E-05
    X_U12.x_lm741.vln  -8.061E-11
    X_U13.x_lm741.vb  -1.530E-05
    X_U13.x_lm741.vc  -2.063E-02
    X_U13.x_lm741.ve   1.066E-11
    X_U13.x_lm741.vlim   4.061E-02
    X_U13.x_lm741.vlp   1.416E-05
    X_U13.x_lm741.vln  -8.061E-11
    X_U14.x_lm741.vb  -1.530E-05
    X_U14.x_lm741.vc  -2.062E-02
    X_U14.x_lm741.ve   1.066E-11
    X_U14.x_lm741.vlim   4.061E-02
    X_U14.x_lm741.vlp   1.416E-05
    X_U14.x_lm741.vln  -8.061E-11
    X_U15.x_lm741.vb  -1.530E-05
    X_U15.x_lm741.vc  -2.065E-02
    X_U15.x_lm741.ve   1.066E-11
    X_U15.x_lm741.vlim   4.061E-02
    X_U15.x_lm741.vlp   1.416E-05
    X_U15.x_lm741.vln  -8.061E-11
    X_U16.x_lm741.vb  -4.258E-06
    X_U16.x_lm741.vc  -2.069E-02
    X_U16.x_lm741.ve   1.066E-11
    X_U16.x_lm741.vlim   4.056E-02
    X_U16.x_lm741.vlp   2.436E-06
    X_U16.x_lm741.vln  -8.057E-11

    TOTAL POWER DISSIPATION   1.15E+05  WATTS


**** 05/26/21 17:04:11 ******* PSpice 17.4.0 (Nov 2018) ******* ID# 0 ********

 ** Profile: "SCHEMATIC1-Simulare_timp"  [ f:\facultate\an2\semestrul 2\tehnici cad\proiect\proiect-pspicefiles\schematic1\simulare_t


 ****     INITIAL TRANSIENT SOLUTION       TEMPERATURE =   27.000 DEG C

 ****     CURRENT STEP                     PARAM R =   50.0000E+03


******************************************************************************



 NODE   VOLTAGE     NODE   VOLTAGE     NODE   VOLTAGE     NODE   VOLTAGE


( +VCC)   12.0000  ( -VCC)  -12.0000  (N00884)   12.0000 (N01960)   20.0000     

(N01967)    6.2487 (N01971)    6.2500 (N02054)    7.2861 (N02279)    7.1537     

(N02363)   11.8040 (N18597)    6.9900 (N18770)    7.9900 (N18946)    8.9900     

(N19125)    9.9900 (N20229)   10.9900 (N21390)   11.7990 (N21394)   11.7990     

(N21398)   11.7990 (N21402)   11.7990 (N21406)   11.7990 (N21414)   11.7990     

(N21545)    3.2058 (N21549)    3.1950 (N21553)    2.1080 (N21557)    2.0039     

(N21561)    2.3155 (N21565)    2.9559 (N33107)    3.9663 (N44111)    5.9900     

(X_U17A.6)   -2.5489                  (X_U17A.7)   13.7250                      

(X_U17A.8)   13.7250                  (X_U17A.9)    0.0000                      

(X_U17B.6)-326.5E-06                  (X_U17B.7)    7.2939                      

(X_U17B.8)    7.2939                  (X_U17B.9)    0.0000                      

(X_U17A.10)    6.6947                 (X_U17A.11)  -11.5760                     

(X_U17A.12)  -11.7580                 (X_U17A.53)   11.0000                     

(X_U17A.54)  -11.0000                 (X_U17A.90)   25.6240                     

(X_U17A.91)   25.0000                 (X_U17A.92)  -25.0000                     

(X_U17A.99)    0.0000                 (X_U17B.10)    5.7300                     

(X_U17B.11)  -11.6640                 (X_U17B.12)  -11.6660                     

(X_U17B.53)   11.0000                 (X_U17B.54)  -11.0000                     

(X_U17B.90)     .1037                 (X_U17B.91)   25.0000                     

(X_U17B.92)  -25.0000                 (X_U17B.99)    0.0000                     

(X_U11.x_lm741.6)   -1.5356           (X_U11.x_lm741.7)   13.8290               

(X_U11.x_lm741.8)   13.8290           (X_U11.x_lm741.9)    0.0000               

(X_U12.x_lm741.6)   -1.5356           (X_U12.x_lm741.7)   13.8290               

(X_U12.x_lm741.8)   13.8290           (X_U12.x_lm741.9)    0.0000               

(X_U13.x_lm741.6)   -1.5356           (X_U13.x_lm741.7)   13.8290               

(X_U13.x_lm741.8)   13.8290           (X_U13.x_lm741.9)    0.0000               

(X_U14.x_lm741.6)   -1.5356           (X_U14.x_lm741.7)   13.8290               

(X_U14.x_lm741.8)   13.8290           (X_U14.x_lm741.9)    0.0000               

(X_U15.x_lm741.6)   -1.5356           (X_U15.x_lm741.7)   13.8290               

(X_U15.x_lm741.8)   13.8290           (X_U15.x_lm741.9)    0.0000               

(X_U16.x_lm741.6)   -1.5356           (X_U16.x_lm741.7)   13.8290               

(X_U16.x_lm741.8)   13.8290           (X_U16.x_lm741.9)    0.0000               

(X_U11.x_lm741.10)   11.1630          (X_U11.x_lm741.11)   12.0000              

(X_U11.x_lm741.12)   11.9180          (X_U11.x_lm741.13)   11.1630              

(X_U11.x_lm741.14)   11.1910          (X_U11.x_lm741.53)   11.0000              

(X_U11.x_lm741.54)    1.0000          (X_U11.x_lm741.90)   40.6100              

(X_U11.x_lm741.91)   40.0000          (X_U11.x_lm741.92)  -40.0000              

(X_U11.x_lm741.99)    6.0000          (X_U12.x_lm741.10)   11.1630              

(X_U12.x_lm741.11)   12.0000          (X_U12.x_lm741.12)   11.9180              

(X_U12.x_lm741.13)   11.1630          (X_U12.x_lm741.14)   11.1910              

(X_U12.x_lm741.53)   11.0000          (X_U12.x_lm741.54)    1.0000              

(X_U12.x_lm741.90)   40.6100          (X_U12.x_lm741.91)   40.0000              

(X_U12.x_lm741.92)  -40.0000          (X_U12.x_lm741.99)    6.0000              

(X_U13.x_lm741.10)   11.1630          (X_U13.x_lm741.11)   12.0000              

(X_U13.x_lm741.12)   11.9180          (X_U13.x_lm741.13)   11.1630              

(X_U13.x_lm741.14)   11.1910          (X_U13.x_lm741.53)   11.0000              

(X_U13.x_lm741.54)    1.0000          (X_U13.x_lm741.90)   40.6100              

(X_U13.x_lm741.91)   40.0000          (X_U13.x_lm741.92)  -40.0000              

(X_U13.x_lm741.99)    6.0000          (X_U14.x_lm741.10)   11.1630              

(X_U14.x_lm741.11)   12.0000          (X_U14.x_lm741.12)   11.9180              

(X_U14.x_lm741.13)   11.1630          (X_U14.x_lm741.14)   11.1910              

(X_U14.x_lm741.53)   11.0000          (X_U14.x_lm741.54)    1.0000              

(X_U14.x_lm741.90)   40.6100          (X_U14.x_lm741.91)   40.0000              

(X_U14.x_lm741.92)  -40.0000          (X_U14.x_lm741.99)    6.0000              

(X_U15.x_lm741.10)   11.1630          (X_U15.x_lm741.11)   12.0000              

(X_U15.x_lm741.12)   11.9180          (X_U15.x_lm741.13)   11.1630              

(X_U15.x_lm741.14)   11.1910          (X_U15.x_lm741.53)   11.0000              

(X_U15.x_lm741.54)    1.0000          (X_U15.x_lm741.90)   40.6100              

(X_U15.x_lm741.91)   40.0000          (X_U15.x_lm741.92)  -40.0000              

(X_U15.x_lm741.99)    6.0000          (X_U16.x_lm741.10)   11.1630              

(X_U16.x_lm741.11)   12.0000          (X_U16.x_lm741.12)   11.9180              

(X_U16.x_lm741.13)   11.1630          (X_U16.x_lm741.14)   11.1910              

(X_U16.x_lm741.53)   11.0000          (X_U16.x_lm741.54)    1.0000              

(X_U16.x_lm741.90)   40.6100          (X_U16.x_lm741.91)   40.0000              

(X_U16.x_lm741.92)  -40.0000          (X_U16.x_lm741.99)    6.0000          




    VOLTAGE SOURCE CURRENTS
    NAME         CURRENT

    V_V1        -1.607E-04
    V_V2        -6.250E-04
    V_V3        -4.800E+03
    V_V4         4.800E+03
    V_V6         6.066E-12
    V_V7         5.055E-12
    V_V8         4.045E-12
    V_V9         3.034E-12
    V_V10        2.023E-12
    V_V11        1.013E-12
    X_U17A.vb   -2.549E-05
    X_U17A.vc   -2.491E-02
    X_U17A.ve    2.431E-11
    X_U17A.vlim   2.562E-02
    X_U17A.vlp   2.450E-05
    X_U17A.vln  -5.063E-11
    X_U17B.vb   -3.265E-09
    X_U17B.vc    3.715E-12
    X_U17B.ve    1.979E-11
    X_U17B.vlim   1.037E-04
    X_U17B.vlp  -2.490E-11
    X_U17B.vln  -2.510E-11
    X_U11.x_lm741.vb  -1.536E-05
    X_U11.x_lm741.vc  -2.063E-02
    X_U11.x_lm741.ve   1.066E-11
    X_U11.x_lm741.vlim   4.061E-02
    X_U11.x_lm741.vlp   1.422E-05
    X_U11.x_lm741.vln  -8.061E-11
    X_U12.x_lm741.vb  -1.536E-05
    X_U12.x_lm741.vc  -2.060E-02
    X_U12.x_lm741.ve   1.066E-11
    X_U12.x_lm741.vlim   4.061E-02
    X_U12.x_lm741.vlp   1.422E-05
    X_U12.x_lm741.vln  -8.061E-11
    X_U13.x_lm741.vb  -1.536E-05
    X_U13.x_lm741.vc  -2.063E-02
    X_U13.x_lm741.ve   1.066E-11
    X_U13.x_lm741.vlim   4.061E-02
    X_U13.x_lm741.vlp   1.422E-05
    X_U13.x_lm741.vln  -8.061E-11
    X_U14.x_lm741.vb  -1.536E-05
    X_U14.x_lm741.vc  -2.062E-02
    X_U14.x_lm741.ve   1.066E-11
    X_U14.x_lm741.vlim   4.061E-02
    X_U14.x_lm741.vlp   1.422E-05
    X_U14.x_lm741.vln  -8.061E-11
    X_U15.x_lm741.vb  -1.536E-05
    X_U15.x_lm741.vc  -2.065E-02
    X_U15.x_lm741.ve   1.066E-11
    X_U15.x_lm741.vlim   4.061E-02
    X_U15.x_lm741.vlp   1.422E-05
    X_U15.x_lm741.vln  -8.061E-11
    X_U16.x_lm741.vb  -1.536E-05
    X_U16.x_lm741.vc  -2.074E-02
    X_U16.x_lm741.ve   1.066E-11
    X_U16.x_lm741.vlim   4.061E-02
    X_U16.x_lm741.vlp   1.421E-05
    X_U16.x_lm741.vln  -8.061E-11

    TOTAL POWER DISSIPATION   1.15E+05  WATTS



          JOB CONCLUDED

**** 05/26/21 17:04:11 ******* PSpice 17.4.0 (Nov 2018) ******* ID# 0 ********

 ** Profile: "SCHEMATIC1-Simulare_timp"  [ f:\facultate\an2\semestrul 2\tehnici cad\proiect\proiect-pspicefiles\schematic1\simulare_t


 ****     JOB STATISTICS SUMMARY

 ****     CURRENT STEP                     PARAM R =   50.0000E+03


******************************************************************************



  License check-out time            =        1.94
  Total job time (using Solver 1)   =         .56
